256
6.2 6.2 6.2
Ar 0 0 0
Ar 0.775 0 0.775
Ar 0.775 0.775 0
Ar 0 0.775 0.775
Ar 0 0 1.55
Ar 0.775 0 2.325
Ar 0.775 0.775 1.55
Ar 0 0.775 2.325
Ar 0 0 3.1
Ar 0.775 0 3.875
Ar 0.775 0.775 3.1
Ar 0 0.775 3.875
Ar 0 0 4.65
Ar 0.775 0 5.425
Ar 0.775 0.775 4.65
Ar 0 0.775 5.425
Ar 0 1.55 0
Ar 0.775 1.55 0.775
Ar 0.775 2.325 0
Ar 0 2.325 0.775
Ar 0 1.55 1.55
Ar 0.775 1.55 2.325
Ar 0.775 2.325 1.55
Ar 0 2.325 2.325
Ar 0 1.55 3.1
Ar 0.775 1.55 3.875
Ar 0.775 2.325 3.1
Ar 0 2.325 3.875
Ar 0 1.55 4.65
Ar 0.775 1.55 5.425
Ar 0.775 2.325 4.65
Ar 0 2.325 5.425
Ar 0 3.1 0
Ar 0.775 3.1 0.775
Ar 0.775 3.875 0
Ar 0 3.875 0.775
Ar 0 3.1 1.55
Ar 0.775 3.1 2.325
Ar 0.775 3.875 1.55
Ar 0 3.875 2.325
Ar 0 3.1 3.1
Ar 0.775 3.1 3.875
Ar 0.775 3.875 3.1
Ar 0 3.875 3.875
Ar 0 3.1 4.65
Ar 0.775 3.1 5.425
Ar 0.775 3.875 4.65
Ar 0 3.875 5.425
Ar 0 4.65 0
Ar 0.775 4.65 0.775
Ar 0.775 5.425 0
Ar 0 5.425 0.775
Ar 0 4.65 1.55
Ar 0.775 4.65 2.325
Ar 0.775 5.425 1.55
Ar 0 5.425 2.325
Ar 0 4.65 3.1
Ar 0.775 4.65 3.875
Ar 0.775 5.425 3.1
Ar 0 5.425 3.875
Ar 0 4.65 4.65
Ar 0.775 4.65 5.425
Ar 0.775 5.425 4.65
Ar 0 5.425 5.425
Ar 1.55 0 0
Ar 2.325 0 0.775
Ar 2.325 0.775 0
Ar 1.55 0.775 0.775
Ar 1.55 0 1.55
Ar 2.325 0 2.325
Ar 2.325 0.775 1.55
Ar 1.55 0.775 2.325
Ar 1.55 0 3.1
Ar 2.325 0 3.875
Ar 2.325 0.775 3.1
Ar 1.55 0.775 3.875
Ar 1.55 0 4.65
Ar 2.325 0 5.425
Ar 2.325 0.775 4.65
Ar 1.55 0.775 5.425
Ar 1.55 1.55 0
Ar 2.325 1.55 0.775
Ar 2.325 2.325 0
Ar 1.55 2.325 0.775
Ar 1.55 1.55 1.55
Ar 2.325 1.55 2.325
Ar 2.325 2.325 1.55
Ar 1.55 2.325 2.325
Ar 1.55 1.55 3.1
Ar 2.325 1.55 3.875
Ar 2.325 2.325 3.1
Ar 1.55 2.325 3.875
Ar 1.55 1.55 4.65
Ar 2.325 1.55 5.425
Ar 2.325 2.325 4.65
Ar 1.55 2.325 5.425
Ar 1.55 3.1 0
Ar 2.325 3.1 0.775
Ar 2.325 3.875 0
Ar 1.55 3.875 0.775
Ar 1.55 3.1 1.55
Ar 2.325 3.1 2.325
Ar 2.325 3.875 1.55
Ar 1.55 3.875 2.325
Ar 1.55 3.1 3.1
Ar 2.325 3.1 3.875
Ar 2.325 3.875 3.1
Ar 1.55 3.875 3.875
Ar 1.55 3.1 4.65
Ar 2.325 3.1 5.425
Ar 2.325 3.875 4.65
Ar 1.55 3.875 5.425
Ar 1.55 4.65 0
Ar 2.325 4.65 0.775
Ar 2.325 5.425 0
Ar 1.55 5.425 0.775
Ar 1.55 4.65 1.55
Ar 2.325 4.65 2.325
Ar 2.325 5.425 1.55
Ar 1.55 5.425 2.325
Ar 1.55 4.65 3.1
Ar 2.325 4.65 3.875
Ar 2.325 5.425 3.1
Ar 1.55 5.425 3.875
Ar 1.55 4.65 4.65
Ar 2.325 4.65 5.425
Ar 2.325 5.425 4.65
Ar 1.55 5.425 5.425
Ar 3.1 0 0
Ar 3.875 0 0.775
Ar 3.875 0.775 0
Ar 3.1 0.775 0.775
Ar 3.1 0 1.55
Ar 3.875 0 2.325
Ar 3.875 0.775 1.55
Ar 3.1 0.775 2.325
Ar 3.1 0 3.1
Ar 3.875 0 3.875
Ar 3.875 0.775 3.1
Ar 3.1 0.775 3.875
Ar 3.1 0 4.65
Ar 3.875 0 5.425
Ar 3.875 0.775 4.65
Ar 3.1 0.775 5.425
Ar 3.1 1.55 0
Ar 3.875 1.55 0.775
Ar 3.875 2.325 0
Ar 3.1 2.325 0.775
Ar 3.1 1.55 1.55
Ar 3.875 1.55 2.325
Ar 3.875 2.325 1.55
Ar 3.1 2.325 2.325
Ar 3.1 1.55 3.1
Ar 3.875 1.55 3.875
Ar 3.875 2.325 3.1
Ar 3.1 2.325 3.875
Ar 3.1 1.55 4.65
Ar 3.875 1.55 5.425
Ar 3.875 2.325 4.65
Ar 3.1 2.325 5.425
Ar 3.1 3.1 0
Ar 3.875 3.1 0.775
Ar 3.875 3.875 0
Ar 3.1 3.875 0.775
Ar 3.1 3.1 1.55
Ar 3.875 3.1 2.325
Ar 3.875 3.875 1.55
Ar 3.1 3.875 2.325
Ar 3.1 3.1 3.1
Ar 3.875 3.1 3.875
Ar 3.875 3.875 3.1
Ar 3.1 3.875 3.875
Ar 3.1 3.1 4.65
Ar 3.875 3.1 5.425
Ar 3.875 3.875 4.65
Ar 3.1 3.875 5.425
Ar 3.1 4.65 0
Ar 3.875 4.65 0.775
Ar 3.875 5.425 0
Ar 3.1 5.425 0.775
Ar 3.1 4.65 1.55
Ar 3.875 4.65 2.325
Ar 3.875 5.425 1.55
Ar 3.1 5.425 2.325
Ar 3.1 4.65 3.1
Ar 3.875 4.65 3.875
Ar 3.875 5.425 3.1
Ar 3.1 5.425 3.875
Ar 3.1 4.65 4.65
Ar 3.875 4.65 5.425
Ar 3.875 5.425 4.65
Ar 3.1 5.425 5.425
Ar 4.65 0 0
Ar 5.425 0 0.775
Ar 5.425 0.775 0
Ar 4.65 0.775 0.775
Ar 4.65 0 1.55
Ar 5.425 0 2.325
Ar 5.425 0.775 1.55
Ar 4.65 0.775 2.325
Ar 4.65 0 3.1
Ar 5.425 0 3.875
Ar 5.425 0.775 3.1
Ar 4.65 0.775 3.875
Ar 4.65 0 4.65
Ar 5.425 0 5.425
Ar 5.425 0.775 4.65
Ar 4.65 0.775 5.425
Ar 4.65 1.55 0
Ar 5.425 1.55 0.775
Ar 5.425 2.325 0
Ar 4.65 2.325 0.775
Ar 4.65 1.55 1.55
Ar 5.425 1.55 2.325
Ar 5.425 2.325 1.55
Ar 4.65 2.325 2.325
Ar 4.65 1.55 3.1
Ar 5.425 1.55 3.875
Ar 5.425 2.325 3.1
Ar 4.65 2.325 3.875
Ar 4.65 1.55 4.65
Ar 5.425 1.55 5.425
Ar 5.425 2.325 4.65
Ar 4.65 2.325 5.425
Ar 4.65 3.1 0
Ar 5.425 3.1 0.775
Ar 5.425 3.875 0
Ar 4.65 3.875 0.775
Ar 4.65 3.1 1.55
Ar 5.425 3.1 2.325
Ar 5.425 3.875 1.55
Ar 4.65 3.875 2.325
Ar 4.65 3.1 3.1
Ar 5.425 3.1 3.875
Ar 5.425 3.875 3.1
Ar 4.65 3.875 3.875
Ar 4.65 3.1 4.65
Ar 5.425 3.1 5.425
Ar 5.425 3.875 4.65
Ar 4.65 3.875 5.425
Ar 4.65 4.65 0
Ar 5.425 4.65 0.775
Ar 5.425 5.425 0
Ar 4.65 5.425 0.775
Ar 4.65 4.65 1.55
Ar 5.425 4.65 2.325
Ar 5.425 5.425 1.55
Ar 4.65 5.425 2.325
Ar 4.65 4.65 3.1
Ar 5.425 4.65 3.875
Ar 5.425 5.425 3.1
Ar 4.65 5.425 3.875
Ar 4.65 4.65 4.65
Ar 5.425 4.65 5.425
Ar 5.425 5.425 4.65
Ar 4.65 5.425 5.425
