         256
   6.71840000000000        6.71840000000000        6.71840000000000     
 Ar  0.884138296248011       -2.67977718688146       -2.25471232309796     
 Ar  0.681931939674744       0.120035491988335       -1.97354370408486     
 Ar  -1.57284961238698       -1.60814274358042       -1.13321252082816     
 Ar  -1.51638248553207       -1.87012807464401        1.30351863050248     
 Ar  0.715640969077542       -1.91388970391215       -3.99223699240420     
 Ar   1.48656505170101        1.06227619575463        2.28488972284640     
 Ar   2.09777458346139        1.52197671585360      -0.718784221548809     
 Ar  -2.16005277266883        2.56792344944893       -3.76686886268697     
 Ar  0.876167079108164       -1.06375971552706        4.18326858094058     
 Ar   1.90952616920223      -0.851227239323415       -2.89988639427180     
 Ar   1.22041018256887        1.53695569969351        1.23758057970702     
 Ar -1.339379958216766E-002   2.58907555444706      -8.677744291041478E-002
 Ar  0.499719867573321        1.12144247961783        1.85995940523316     
 Ar  -2.36698149575564       -1.55927902392150       0.414673524826987     
 Ar -4.895718773739961E-002   1.51169971460935       0.274486960057233     
 Ar   2.32912157785133       0.533819878052460       -1.17705259550797     
 Ar   3.20701979404985        2.07090366047698       -2.09500543706241     
 Ar   1.17856263504286       9.142809946643904E-002  -2.84124319752689     
 Ar  8.104031669995111E-002   2.56321930131721        3.09198069247587     
 Ar   1.81791336108035       -2.35525165817008       -2.56446797458897     
 Ar -0.329487440887378       -1.57647970836703       0.795718942706588     
 Ar  -3.51329244878941        2.00475781054032        1.33462402186975     
 Ar -0.373207994572970       -1.41139837022730       -2.88445784803041     
 Ar  -3.48854415918001       0.998332280681364       0.837618547124420     
 Ar  0.151318707338512        2.42419058724572       -1.07673279372398     
 Ar   2.65332946900181        2.47848219867766        3.20896672708107     
 Ar  -2.02838577851643       -2.80612890316553        1.14581623365850     
 Ar   1.51942403056816       -1.79186484326213        3.32565089452739     
 Ar  -1.29953686118136       0.359497628517691       0.984018681224606     
 Ar  6.028639750787163E-002  0.469108001574922       -2.81546194295300     
 Ar  -2.52125811957146       -2.17548016326141        1.96098762661251     
 Ar   2.82659289062940       0.246074132555222        2.79614809563974     
 Ar  -1.20920474565349      -0.911005267808437       -2.02068917413406     
 Ar  -1.08954739559269       -2.46174751649730       -3.08549601745754     
 Ar  -3.03906112191117       -2.49004222186305        3.24178995756448     
 Ar  0.113099466978520       -3.12604491390397       0.654994244303976     
 Ar  -1.40464439687388        1.29201440980796       -2.34411684666462     
 Ar  -2.92390703446109      -2.440244399881356E-002  -1.87160325691690     
 Ar  7.043141730207302E-002  0.883514967423723       -1.41804882859057     
 Ar   2.39074636073514       -1.51838445987241      -5.510388105151805E-002
 Ar -0.987736904418351       -1.97577412939439       -2.15205484886815     
 Ar -0.508859585726557       -3.24500701284769        2.32703696604408     
 Ar -0.975182751655871        2.18477556492157       0.630257694670964     
 Ar  -1.94515885578732        1.01266092773636      -0.605497020306683     
 Ar  -1.51194228629107       -1.36898488533497       -3.00103573820235     
 Ar   4.08589825304589        2.07755793412037       0.840991778971596     
 Ar   2.98525788888474       -4.70153573273129       0.149161472594165     
 Ar   2.50876763892542       0.580195407012518        1.80338750545091     
 Ar   1.87540866955403       -3.40690270687882       0.595227509666386     
 Ar  -1.23524901467493       -1.84365461816210      -2.519851159104989E-002
 Ar   1.00184956197828        2.85849359108470       0.255680570529218     
 Ar   2.52625096975985       -1.00930340386233        2.97705678101155     
 Ar  -1.57085635215370        1.91206526757982        2.00354406877442     
 Ar   1.77289941149080       0.432738321898410       -2.03925072650166     
 Ar  -2.08435235128817      -6.418657860990795E-002  -2.51417845193827     
 Ar  0.122800710087972        2.25652932827468        1.04941358829059     
 Ar   3.07883592146851        2.58164392310308        2.23068674458486     
 Ar  -4.74314580457165        1.28091034296649       0.542455859848919     
 Ar   1.59225690381647      -0.703549846664572       -1.94627332170332     
 Ar  0.513274738533171       -2.31568181279211       -1.03488607320327     
 Ar  -2.33230825816068        1.68767802488972       -1.18791744897642     
 Ar  -2.70398600290507       -1.00775000644900        1.45788599213788     
 Ar  -2.86792966920911        3.29935648275880       0.639292112505965     
 Ar   1.49025874988328      -0.328134214469610      -0.876595770328444     
 Ar   1.51495087458542       -1.67782484998516      -0.825259011839624     
 Ar   1.61105729974002       0.623449999526694      -0.214197034826678     
 Ar  -1.16143305457800       -2.71725335217765      -0.792355302877288     
 Ar   2.71168568937408      -0.350170386887867       -1.87644725619363     
 Ar  -1.03786588372667       -1.22864791622751        2.79405139669344     
 Ar   2.05643688566021        2.44246925753073        2.23765458551982     
 Ar   1.35384499331202       -1.10057254890537      -4.409483194432192E-002
 Ar   1.97984355565281       0.926805622719332       -2.86179494988365     
 Ar   2.58949393194879       6.591452139147574E-002   3.74306859090603     
 Ar   2.07742704423446        2.13507646611502       -2.67260348576959     
 Ar -0.875111306597149       -2.60418353394219       0.860423315852592     
 Ar   2.05135310637719      -0.253759996552181        2.15758565756986     
 Ar  -3.71420101199373      -0.912064745107479        3.90735318055468     
 Ar  -3.29684021872621       -1.24625719817711       -1.68902311167850     
 Ar -0.595198308323438        1.71121345698003      -0.595244440029963     
 Ar  0.454131165497056       0.171668760070960        1.41685333715623     
 Ar  0.927047070642423        2.21565518170691        3.68788739676560     
 Ar  -3.29132547651173       -1.94917820655703       -2.44625963624472     
 Ar   2.62579137359192       -2.72861171634769       -2.03377443301060     
 Ar   1.53690278501038       0.538556638101042        1.37701886341885     
 Ar -0.849073722653692        2.96367415917944        1.30903387076377     
 Ar   1.42397194890140        3.02212805565003      -0.972890269623635     
 Ar   2.62749040975190        3.51917862687932        2.35829058944371     
 Ar   1.86057052724937       0.299718148488225        2.95458787820755     
 Ar  -1.35480482272273        3.43459172742288       -3.61503571069731     
 Ar -0.336575983919462       -2.50134378971193      -0.175395869737157     
 Ar   3.11596619778072       -3.39429811284489       -1.45960650466594     
 Ar  -3.99595211932434        1.57896745594291        2.66946499374359     
 Ar   1.18081385312754        3.08077841579674        2.41744156784347     
 Ar -0.992131970302394        1.10433054241239       0.208523636969212     
 Ar -0.286597644505275      -0.156114498108982       -1.28234706477211     
 Ar -0.980525598315745       0.559049442201238       -3.16487671643547     
 Ar   2.20056919674638        1.52199894574573        1.64950561196509     
 Ar  0.960393476850818        2.01937514560119        2.23418671876363     
 Ar   1.16929720424924      -0.672185819692415        1.66926494775457     
 Ar   1.09698426559333       -2.81532681176155        1.12518804740652     
 Ar -0.626024879769844       0.503637446709288      -0.574135363043727     
 Ar   3.84780306899519        1.33813746071755      -0.269727597939362     
 Ar  -3.17488138287570       0.328998749985213      -5.522700716885812E-002
 Ar   1.85041315280521       -1.42922917128619        2.14158702229655     
 Ar   2.06702231213729      -0.766556781021263       0.748901768330703     
 Ar  -2.99528992582690       -1.56246804235379       -3.99361151548901     
 Ar  0.221947995157468      -0.991303901043158        1.82000462478476     
 Ar   2.34699352969049        1.49795160444495       -1.86934904321795     
 Ar   1.26959430640857        2.11969328963148       -1.51537373348713     
 Ar  0.175875770981507        2.72357397377305        1.98138971754609     
 Ar  -2.22332025882392       0.852206348100300       0.406120668063155     
 Ar  0.517079019822530       -3.44285348864723       -1.56339522661674     
 Ar   2.37635243722384       -3.10090391218276      -0.682065528990193     
 Ar  0.447384882712422      -0.344470969874460      -0.511564211594344     
 Ar   2.12406926675808       -2.27753425354872        1.43984082194476     
 Ar  -2.02740720651441        1.86243811269359        3.65341042951106     
 Ar  -1.66486331477249        1.40203021294760        1.01599279372137     
 Ar  -1.89450927323394      -0.914641365537835      -0.505884886899011     
 Ar  -1.67903610503251        2.92801461729687       -2.68204959124502     
 Ar   2.29406147335374      -0.973650277098430      -0.883386558562492     
 Ar   2.27837050533007       0.344090202426345       0.809938729590263     
 Ar -0.524467398435709       0.122708756037170        1.92523205150680     
 Ar   1.84398526529418        2.98419926878172        3.35785770845447     
 Ar  -2.16469834630385       0.684727598718251       -1.74512796552557     
 Ar -0.129847242060917      -0.638394732160249       -2.26183846636405     
 Ar  -1.29631240625027       -2.43962370494406        2.33326513329057     
 Ar  -3.14035775888080       -3.20987980143563        1.69513851479076     
 Ar   1.16940549653932        3.77606582758686        3.36043186356164     
 Ar  0.536082406134867       -1.96344812124628        3.75155090896844     
 Ar  -2.46194825469164        1.06999589991687        1.45956554717534     
 Ar  -4.32739207589188       -1.43514856420712       -2.06618132822751     
 Ar  -1.13069756925476        1.11374111298853       -1.26574613461133     
 Ar  -2.34907163532190      -4.288979539180449E-002   1.12755029675629     
 Ar   3.05325794343719       0.801094084160589       -2.23654133477311     
 Ar   1.33744802014750       -1.76058562762478       -1.84003615969754     
 Ar  0.823485691625015        1.15788349425267       -3.55616412982117     
 Ar  -1.98838925704471       -1.98039047381638       -3.61729942375918     
 Ar  -1.84541494804335        3.15771554701041       0.180558391880860     
 Ar   2.06807836056709       -2.50458060578096       7.586526119406310E-002
 Ar  0.148985023535833       -1.76840776649194       -1.96554993484543     
 Ar   3.49957868994940        3.71706135039453       -2.64169840151216     
 Ar  -2.08400927277417      -0.836206614624149        2.66987643318237     
 Ar -0.515978310892640        1.18026311820246        1.17330141015049     
 Ar -0.581412466689781       -1.90305561612469       -1.13345614544380     
 Ar -0.494803031222647        3.06426642293699        4.27961619162847     
 Ar   1.05047157345059        1.74021201575236       0.287961086898957     
 Ar  -2.21653768320025       -2.46936856029337       -1.28317918462679     
 Ar  -3.05871901708365        1.87425132797700        2.95590313400686     
 Ar  0.429709096988493       -2.92677627180405        2.49648303297072     
 Ar  0.531754222479713       -2.16298623784100       0.517943163361004     
 Ar -4.982257281357667E-002   1.65322213591562       -3.15971022789317     
 Ar  -3.37976493761212       0.623809636817981       -1.17822500647177     
 Ar -0.747914603850124       -4.45260428684304       -1.64925946517002     
 Ar  -1.63406915006947        2.51314908900698      -0.765791321504469     
 Ar  -1.85171114869535        2.47969422968709       -1.78657420213323     
 Ar  -3.90976497021559      -0.897022965734464        1.67101775207303     
 Ar  -2.86266367660466        2.63421032235109       -2.70506877882157     
 Ar -0.684132799451540        3.06745038864417      -0.954449265850230     
 Ar -0.375438612143703        1.79847874325101        2.12564992606176     
 Ar   3.25464137220441       -2.27837919878591      -0.199326071461497     
 Ar  -1.20235641327108       4.554694211351754E-002   2.71469058309794     
 Ar  0.324384911725806        2.27443182311538       -2.07845268559349     
 Ar -0.386337985592749       -2.13964763517189        2.87218503180319     
 Ar -0.612640755809834      -0.824013702558431      -0.300506701265500     
 Ar  -2.20193552746094       -2.54842172876303      -0.243879620738029     
 Ar   1.58495560331845       -2.46095497701502        2.43696254897027     
 Ar  -3.08229490842749       -3.21458630133019      -0.486233142635052     
 Ar  -3.85729708465173        2.98626790286033        1.19717609411489     
 Ar  -1.49086731965578      -8.613012748303985E-002  -1.27269119545801     
 Ar  0.836526568806300        1.25641729963914       -2.38284475392196     
 Ar  -1.90786163583045        1.84453729995067       0.116477558765360     
 Ar  -3.45738474172958       -1.39881333145944       0.608181696394810     
 Ar   2.99430268163617       -4.08344672342144      -0.708991192135382     
 Ar   3.19492963655405      -0.661911712802252      -0.547978208451885     
 Ar  -3.26246874505706       0.108742233788113        1.66405277557803     
 Ar   2.34435613513858        2.55042733592430       -1.40902255646049     
 Ar  0.141298206853531       -1.63310040957039      -0.441034543071982     
 Ar  0.757362381239605       0.150301773676954        2.77298145939159     
 Ar   3.44535532395172        1.06265520078246        2.16282220195167     
 Ar -0.190174183341966       0.850485900037552       -4.03840088066773     
 Ar  -3.90673856466516        3.00138707414385       -2.58629272989626     
 Ar   3.90128089952794       -1.56442519787650      -0.676673227092286     
 Ar   1.64688797021632        1.81719201527111        3.02278109187011     
 Ar   1.51067345227648      -0.832750027409399        2.85587495095751     
 Ar  -3.28001412528683       -2.41711049092114       -1.20328792819384     
 Ar   2.55276419790691       -1.76035430387139        3.61754190646188     
 Ar  -2.59599139361728       -1.22562109632168       -2.95144083905951     
 Ar  -3.37641529262059      -0.569048522433504        2.44047186731408     
 Ar   1.70243586537775        4.08990739846249       -1.39241140506804     
 Ar  0.803057097581527        1.76905064090182      -0.666948009839471     
 Ar   1.82159129395434       -3.28899426837175        1.61847038707768     
 Ar -0.289372899311361        1.37179310823985       -2.19761345483065     
 Ar  0.980320669519080       -1.84738247450389        1.66210792324418     
 Ar   1.28196009718099      -0.132144187908883       0.685070726038335     
 Ar -0.988641312510888        2.56989908934552        2.71274390054038     
 Ar  -2.57899769145680       0.260625390320117        2.57616722109879     
 Ar -0.891616969117097        2.19174456136436       -2.72518517498385     
 Ar -0.195282698135093       -2.76263060935818       -2.11435423182953     
 Ar  -3.21767703039165       -3.64076070428781        3.07044241387826     
 Ar -0.138132833144468       -3.05050604813662       -3.33102529464187     
 Ar  0.288900705632550      -0.874118257996947        3.18645682984542     
 Ar  0.525862785327714      -0.831448200043256       0.808821217344759     
 Ar  0.514161567845026       -3.64451182958275       -2.77102355825879     
 Ar  -1.08548112878413      -0.447187309010937       -3.02185160406080     
 Ar   3.21374842663048      -0.274191130749487       0.655250088157615     
 Ar  -2.68539010824970        2.55475936787939      -0.169300495152862     
 Ar  -2.67524805971831      -0.630883085258932       0.300072406481683     
 Ar  -1.17013140503779        1.37713913944111        2.90514608782155     
 Ar  -1.50873604082954      -1.982862150561258E-004 -0.180047358430892     
 Ar   3.48201912518576        1.13329287713743       -3.16412930514751     
 Ar   2.18013391559392        2.47031720045503      -0.128999977185046     
 Ar   2.59467023668755       -2.96225068438554        3.37864458992288     
 Ar  -3.06842242268231       1.075957954856855E-002  -3.02621265859316     
 Ar   2.75967104831429        1.00257825734696      -0.146831666027138     
 Ar  0.780145067848953       0.831900707764703       0.585503017310984     
 Ar -0.787740370179068        3.26376129071832       0.113699715257309     
 Ar  -1.64135755430054      -0.909642864147405       0.611086826450974     
 Ar -4.876659810093224E-002  -2.35538758154328        1.59138644665441     
 Ar  -2.64426065615030       -3.03322577645068        2.51582773355105     
 Ar   2.58870315905553       -1.96413920852451       -1.05722046675158     
 Ar   2.07405493354321        2.22845081647358       0.888912119042990     
 Ar  -2.26116182971863       -1.16609102321399       -1.74438538957259     
 Ar -0.638065271487268      -0.660147128390262        1.04970971450202     
 Ar  -2.59118800653912        2.30565983231652        2.08517641458296     
 Ar  -1.85258175984664        2.66628054063306        1.21736565137948     
 Ar   1.04834829005773       -2.75053100143783      -0.133494001260120     
 Ar   4.50880629616908       -3.38723046725041      -0.887055113534825     
 Ar   2.33749210576661      -0.210612714515744      -0.104092247773354     
 Ar  -2.37672390604308        3.34961112075262       -2.00113971841735     
 Ar  -2.17828816831142        1.35278055309380        2.58286279083171     
 Ar -0.619575840044648       -1.58013017657859        1.93117044950272     
 Ar  -3.55036658347894       -2.11885335393724        1.71661626198273     
 Ar   2.70275666403548       -2.08894693471311        2.62882655271948     
 Ar   3.89213970944813        2.47194852722420       -1.42750131127531     
 Ar  -1.54896886567843       0.637120214531722        1.95054790032046     
 Ar  -2.37035278453430       -3.16885881274611       -3.21075564220382     
 Ar  -1.43202704049883       -3.03635759313786       -1.71027444853253     
 Ar -0.983758725107872       0.215216992976953       -2.20337117386287     
 Ar  -2.63087940351694        1.58328436348614       -2.23420267660440     
 Ar   3.06460563647928        1.70244521176883       -1.16319778355462     
 Ar  -2.49722576353678       0.156822424819473      -0.797202560844111     
 Ar   3.83343633662324       -2.27715011264559       0.940826190917240     
 Ar   2.84351556303577       -2.59145096741601       0.772183281560694     
 Ar  -2.07074543525716       -2.04205919522190       -2.36632516072563     
 Ar  0.216294244160532       -3.21215452730279      -0.553068667410994     
 Ar -0.200766657371270       0.217545918456123       0.370326567089299     
 Ar   1.58979031936923       -1.74293503960670       0.810230908676592     
 Ar  -1.64025030261150      -0.818782980169803        1.66605113712501     
 Ar  -1.85855585773293        3.21517785982127        2.15608984245296     
 Ar  -2.15170572043293       0.777716005528510        3.55536614078060     
 Ar   1.12199494940598       0.753646599195572       -1.25691657451519     
 Ar   1.73015708962498        3.07790220227409       -2.17024378738100     
 Ar  0.681456095852998      -0.837652384597755       -1.50826180764917     
 Ar   1.24461944880846        2.68298621746763        1.25139402588931     
 Ar  0.388381160919660       0.742032528089415      -0.342328736224089     
 Ar   2.90546157275962        3.25128056028101       0.124710260993135     
